Circuit: * /Users/winterg/Dropbox (MIT)/MIT/a_Classes/6.012/psets/dp/subcircuits/0_winterg_assembly.asc

WARNING: Specified period is not longer than the sum of Trise, Tfall, and Ton for v7.  Increasing period to 6.08419e-310
WARNING: Specified period is not longer than the sum of Trise, Tfall, and Ton for v6.  Increasing period to 6.08419e-310
WARNING: Specified period is not longer than the sum of Trise, Tfall, and Ton for v5.  Increasing period to 6.08419e-310
WARNING: Specified period is not longer than the sum of Trise, Tfall, and Ton for v4.  Increasing period to 6.08419e-310
WARNING: Specified period is not longer than the sum of Trise, Tfall, and Ton for v3.  Increasing period to 6.08419e-310
WARNING: Specified period is not longer than the sum of Trise, Tfall, and Ton for v2.  Increasing period to 6.08419e-310
WARNING: Specified period is not longer than the sum of Trise, Tfall, and Ton for v1.  Increasing period to 6.08419e-310
WARNING: Specified period is not longer than the sum of Trise, Tfall, and Ton for v0.  Increasing period to 6.08419e-310
WARNING: Node X1:N010 is floating.
WARNING: Node X2:N001 is floating.

Model "x2:m27:pch": Oxide thickness thinner than recommended for a level 1 MOSFET.
Instance "m:x2:m27:1": Length shorter than recommended for a level 1 MOSFET.
Instance "m:x2:m27:1": Width narrower than recommended for a level 1 MOSFET.
Model "x2:m26:nch": Oxide thickness thinner than recommended for a level 1 MOSFET.
Instance "m:x2:m26:1": Length shorter than recommended for a level 1 MOSFET.
Instance "m:x2:m26:1": Width narrower than recommended for a level 1 MOSFET.
Model "x2:m25:pch": Oxide thickness thinner than recommended for a level 1 MOSFET.
Instance "m:x2:m25:1": Length shorter than recommended for a level 1 MOSFET.
Instance "m:x2:m25:1": Width narrower than recommended for a level 1 MOSFET.
Model "x2:m24:pch": Oxide thickness thinner than recommended for a level 1 MOSFET.
Instance "m:x2:m24:1": Length shorter than recommended for a level 1 MOSFET.
Instance "m:x2:m24:1": Width narrower than recommended for a level 1 MOSFET.
Model "x2:m23:nch": Oxide thickness thinner than recommended for a level 1 MOSFET.
Instance "m:x2:m23:1": Length shorter than recommended for a level 1 MOSFET.
Instance "m:x2:m23:1": Width narrower than recommended for a level 1 MOSFET.
Model "x2:m22:pch": Oxide thickness thinner than recommended for a level 1 MOSFET.
Instance "m:x2:m22:1": Length shorter than recommended for a level 1 MOSFET.
Instance "m:x2:m22:1": Width narrower than recommended for a level 1 MOSFET.
Model "x2:m21:pch": Oxide thickness thinner than recommended for a level 1 MOSFET.
Instance "m:x2:m21:1": Length shorter than recommended for a level 1 MOSFET.
Instance "m:x2:m21:1": Width narrower than recommended for a level 1 MOSFET.
Model "x2:m20:nch": Oxide thickness thinner than recommended for a level 1 MOSFET.
Instance "m:x2:m20:1": Length shorter than recommended for a level 1 MOSFET.
Instance "m:x2:m20:1": Width narrower than recommended for a level 1 MOSFET.
Model "x2:m19:pch": Oxide thickness thinner than recommended for a level 1 MOSFET.
Instance "m:x2:m19:1": Length shorter than recommended for a level 1 MOSFET.
Instance "m:x2:m19:1": Width narrower than recommended for a level 1 MOSFET.
Model "x2:m18:pch": Oxide thickness thinner than recommended for a level 1 MOSFET.
Instance "m:x2:m18:1": Length shorter than recommended for a level 1 MOSFET.
Instance "m:x2:m18:1": Width narrower than recommended for a level 1 MOSFET.
Model "x2:m17:nch": Oxide thickness thinner than recommended for a level 1 MOSFET.
Instance "m:x2:m17:1": Length shorter than recommended for a level 1 MOSFET.
Instance "m:x2:m17:1": Width narrower than recommended for a level 1 MOSFET.
Model "x2:m16:pch": Oxide thickness thinner than recommended for a level 1 MOSFET.
Instance "m:x2:m16:1": Length shorter than recommended for a level 1 MOSFET.
Instance "m:x2:m16:1": Width narrower than recommended for a level 1 MOSFET.
Model "x2:m15:pch": Oxide thickness thinner than recommended for a level 1 MOSFET.
Instance "m:x2:m15:1": Length shorter than recommended for a level 1 MOSFET.
Instance "m:x2:m15:1": Width narrower than recommended for a level 1 MOSFET.
Model "x2:m14:nch": Oxide thickness thinner than recommended for a level 1 MOSFET.
Instance "m:x2:m14:1": Length shorter than recommended for a level 1 MOSFET.
Instance "m:x2:m14:1": Width narrower than recommended for a level 1 MOSFET.
Model "x2:m13:pch": Oxide thickness thinner than recommended for a level 1 MOSFET.
Instance "m:x2:m13:1": Length shorter than recommended for a level 1 MOSFET.
Instance "m:x2:m13:1": Width narrower than recommended for a level 1 MOSFET.
Model "x2:m12:pch": Oxide thickness thinner than recommended for a level 1 MOSFET.
Instance "m:x2:m12:1": Length shorter than recommended for a level 1 MOSFET.
Instance "m:x2:m12:1": Width narrower than recommended for a level 1 MOSFET.
Model "x2:m11:nch": Oxide thickness thinner than recommended for a level 1 MOSFET.
Instance "m:x2:m11:1": Length shorter than recommended for a level 1 MOSFET.
Instance "m:x2:m11:1": Width narrower than recommended for a level 1 MOSFET.
Model "x2:m10:pch": Oxide thickness thinner than recommended for a level 1 MOSFET.
Instance "m:x2:m10:1": Length shorter than recommended for a level 1 MOSFET.
Instance "m:x2:m10:1": Width narrower than recommended for a level 1 MOSFET.
Model "x2:m9:pch": Oxide thickness thinner than recommended for a level 1 MOSFET.
Instance "m:x2:m9:1": Length shorter than recommended for a level 1 MOSFET.
Instance "m:x2:m9:1": Width narrower than recommended for a level 1 MOSFET.
Model "x2:m8:nch": Oxide thickness thinner than recommended for a level 1 MOSFET.
Instance "m:x2:m8:1": Length shorter than recommended for a level 1 MOSFET.
Instance "m:x2:m8:1": Width narrower than recommended for a level 1 MOSFET.
Model "x2:m7:pch": Oxide thickness thinner than recommended for a level 1 MOSFET.
Instance "m:x2:m7:1": Length shorter than recommended for a level 1 MOSFET.
Instance "m:x2:m7:1": Width narrower than recommended for a level 1 MOSFET.
Model "x2:m6:pch": Oxide thickness thinner than recommended for a level 1 MOSFET.
Instance "m:x2:m6:1": Length shorter than recommended for a level 1 MOSFET.
Instance "m:x2:m6:1": Width narrower than recommended for a level 1 MOSFET.
Model "x2:m5:nch": Oxide thickness thinner than recommended for a level 1 MOSFET.
Instance "m:x2:m5:1": Length shorter than recommended for a level 1 MOSFET.
Instance "m:x2:m5:1": Width narrower than recommended for a level 1 MOSFET.
Model "x2:m4:pch": Oxide thickness thinner than recommended for a level 1 MOSFET.
Instance "m:x2:m4:1": Length shorter than recommended for a level 1 MOSFET.
Instance "m:x2:m4:1": Width narrower than recommended for a level 1 MOSFET.
Model "x2:m3:pch": Oxide thickness thinner than recommended for a level 1 MOSFET.
Instance "m:x2:m3:1": Length shorter than recommended for a level 1 MOSFET.
Instance "m:x2:m3:1": Width narrower than recommended for a level 1 MOSFET.
Model "x2:m2:nch": Oxide thickness thinner than recommended for a level 1 MOSFET.
Instance "m:x2:m2:1": Length shorter than recommended for a level 1 MOSFET.
Instance "m:x2:m2:1": Width narrower than recommended for a level 1 MOSFET.
Model "x2:m1:pch": Oxide thickness thinner than recommended for a level 1 MOSFET.
Instance "m:x2:m1:1": Length shorter than recommended for a level 1 MOSFET.
Instance "m:x2:m1:1": Width narrower than recommended for a level 1 MOSFET.
Model "x1:m18:pch": Oxide thickness thinner than recommended for a level 1 MOSFET.
Instance "m:x1:m18:1": Length shorter than recommended for a level 1 MOSFET.
Instance "m:x1:m18:1": Width narrower than recommended for a level 1 MOSFET.
Model "x1:m17:pch": Oxide thickness thinner than recommended for a level 1 MOSFET.
Instance "m:x1:m17:1": Length shorter than recommended for a level 1 MOSFET.
Instance "m:x1:m17:1": Width narrower than recommended for a level 1 MOSFET.
Model "x1:m16:nch": Oxide thickness thinner than recommended for a level 1 MOSFET.
Instance "m:x1:m16:1": Length shorter than recommended for a level 1 MOSFET.
Model "x1:m15:nch": Oxide thickness thinner than recommended for a level 1 MOSFET.
Instance "m:x1:m15:1": Length shorter than recommended for a level 1 MOSFET.
Model "x1:m14:nch": Oxide thickness thinner than recommended for a level 1 MOSFET.
Instance "m:x1:m14:1": Length shorter than recommended for a level 1 MOSFET.
Model "x1:m13:nch": Oxide thickness thinner than recommended for a level 1 MOSFET.
Instance "m:x1:m13:1": Length shorter than recommended for a level 1 MOSFET.
Model "x1:m12:nch": Oxide thickness thinner than recommended for a level 1 MOSFET.
Instance "m:x1:m12:1": Length shorter than recommended for a level 1 MOSFET.
Model "x1:m11:nch": Oxide thickness thinner than recommended for a level 1 MOSFET.
Instance "m:x1:m11:1": Length shorter than recommended for a level 1 MOSFET.
Model "x1:m10:nch": Oxide thickness thinner than recommended for a level 1 MOSFET.
Instance "m:x1:m10:1": Length shorter than recommended for a level 1 MOSFET.
Model "x1:m9:nch": Oxide thickness thinner than recommended for a level 1 MOSFET.
Instance "m:x1:m9:1": Length shorter than recommended for a level 1 MOSFET.
Model "x1:m7:nch": Oxide thickness thinner than recommended for a level 1 MOSFET.
Instance "m:x1:m7:1": Length shorter than recommended for a level 1 MOSFET.
Model "x1:m6:nch": Oxide thickness thinner than recommended for a level 1 MOSFET.
Instance "m:x1:m6:1": Length shorter than recommended for a level 1 MOSFET.
Model "x1:m5:nch": Oxide thickness thinner than recommended for a level 1 MOSFET.
Instance "m:x1:m5:1": Length shorter than recommended for a level 1 MOSFET.
Model "x1:m4:nch": Oxide thickness thinner than recommended for a level 1 MOSFET.
Instance "m:x1:m4:1": Length shorter than recommended for a level 1 MOSFET.
Model "x1:m3:nch": Oxide thickness thinner than recommended for a level 1 MOSFET.
Instance "m:x1:m3:1": Length shorter than recommended for a level 1 MOSFET.
Model "x1:m2:nch": Oxide thickness thinner than recommended for a level 1 MOSFET.
Instance "m:x1:m2:1": Length shorter than recommended for a level 1 MOSFET.
Model "x1:m1:nch": Oxide thickness thinner than recommended for a level 1 MOSFET.
Instance "m:x1:m1:1": Length shorter than recommended for a level 1 MOSFET.
Model "x1:m0:nch": Oxide thickness thinner than recommended for a level 1 MOSFET.
Instance "m:x1:m0:1": Length shorter than recommended for a level 1 MOSFET.
Instance "m:x1:m0:1": Width narrower than recommended for a level 1 MOSFET.
Model "x1:m8:nch": Oxide thickness thinner than recommended for a level 1 MOSFET.
Instance "m:x1:m8:1": Length shorter than recommended for a level 1 MOSFET.
Instance "m:x1:m8:1": Width narrower than recommended for a level 1 MOSFET.
Direct Newton iteration for .op point succeeded.
Ignoring empty pin current: Ix(m1:d)
Ignoring empty pin current: Ix(m1:g)
Ignoring empty pin current: Ix(m1:s)
Ignoring empty pin current: Ix(m1:vdd)
Ignoring empty pin current: Ix(m2:d)
Ignoring empty pin current: Ix(m2:g)
Ignoring empty pin current: Ix(m2:s)
Ignoring empty pin current: Ix(m2:gnd)
Ignoring empty pin current: Ix(m3:d)
Ignoring empty pin current: Ix(m3:g)
Ignoring empty pin current: Ix(m3:s)
Ignoring empty pin current: Ix(m3:vdd)
Ignoring empty pin current: Ix(m4:d)
Ignoring empty pin current: Ix(m4:g)
Ignoring empty pin current: Ix(m4:s)
Ignoring empty pin current: Ix(m4:vdd)
Ignoring empty pin current: Ix(m5:d)
Ignoring empty pin current: Ix(m5:g)
Ignoring empty pin current: Ix(m5:s)
Ignoring empty pin current: Ix(m5:gnd)
Ignoring empty pin current: Ix(m6:d)
Ignoring empty pin current: Ix(m6:g)
Ignoring empty pin current: Ix(m6:s)
Ignoring empty pin current: Ix(m6:vdd)
Ignoring empty pin current: Ix(m7:d)
Ignoring empty pin current: Ix(m7:g)
Ignoring empty pin current: Ix(m7:s)
Ignoring empty pin current: Ix(m7:vdd)
Ignoring empty pin current: Ix(m8:d)
Ignoring empty pin current: Ix(m8:g)
Ignoring empty pin current: Ix(m8:s)
Ignoring empty pin current: Ix(m8:gnd)
Ignoring empty pin current: Ix(m9:d)
Ignoring empty pin current: Ix(m9:g)
Ignoring empty pin current: Ix(m9:s)
Ignoring empty pin current: Ix(m9:vdd)
Ignoring empty pin current: Ix(m10:d)
Ignoring empty pin current: Ix(m10:g)
Ignoring empty pin current: Ix(m10:s)
Ignoring empty pin current: Ix(m10:vdd)
Ignoring empty pin current: Ix(m11:d)
Ignoring empty pin current: Ix(m11:g)
Ignoring empty pin current: Ix(m11:s)
Ignoring empty pin current: Ix(m11:gnd)
Ignoring empty pin current: Ix(m12:d)
Ignoring empty pin current: Ix(m12:g)
Ignoring empty pin current: Ix(m12:s)
Ignoring empty pin current: Ix(m12:vdd)
Ignoring empty pin current: Ix(m13:d)
Ignoring empty pin current: Ix(m13:g)
Ignoring empty pin current: Ix(m13:s)
Ignoring empty pin current: Ix(m13:vdd)
Ignoring empty pin current: Ix(m14:d)
Ignoring empty pin current: Ix(m14:g)
Ignoring empty pin current: Ix(m14:s)
Ignoring empty pin current: Ix(m14:gnd)
Ignoring empty pin current: Ix(m15:d)
Ignoring empty pin current: Ix(m15:g)
Ignoring empty pin current: Ix(m15:s)
Ignoring empty pin current: Ix(m15:vdd)
Ignoring empty pin current: Ix(m16:d)
Ignoring empty pin current: Ix(m16:g)
Ignoring empty pin current: Ix(m16:s)
Ignoring empty pin current: Ix(m16:vdd)
Ignoring empty pin current: Ix(m17:d)
Ignoring empty pin current: Ix(m17:g)
Ignoring empty pin current: Ix(m17:s)
Ignoring empty pin current: Ix(m17:gnd)
Ignoring empty pin current: Ix(m18:d)
Ignoring empty pin current: Ix(m18:g)
Ignoring empty pin current: Ix(m18:s)
Ignoring empty pin current: Ix(m18:vdd)
Ignoring empty pin current: Ix(m19:d)
Ignoring empty pin current: Ix(m19:g)
Ignoring empty pin current: Ix(m19:s)
Ignoring empty pin current: Ix(m19:vdd)
Ignoring empty pin current: Ix(m20:d)
Ignoring empty pin current: Ix(m20:g)
Ignoring empty pin current: Ix(m20:s)
Ignoring empty pin current: Ix(m20:gnd)
Ignoring empty pin current: Ix(m21:d)
Ignoring empty pin current: Ix(m21:g)
Ignoring empty pin current: Ix(m21:s)
Ignoring empty pin current: Ix(m21:vdd)
Ignoring empty pin current: Ix(m22:d)
Ignoring empty pin current: Ix(m22:g)
Ignoring empty pin current: Ix(m22:s)
Ignoring empty pin current: Ix(m22:vdd)
Ignoring empty pin current: Ix(m23:d)
Ignoring empty pin current: Ix(m23:g)
Ignoring empty pin current: Ix(m23:s)
Ignoring empty pin current: Ix(m23:gnd)
Ignoring empty pin current: Ix(m24:d)
Ignoring empty pin current: Ix(m24:g)
Ignoring empty pin current: Ix(m24:s)
Ignoring empty pin current: Ix(m24:vdd)
Ignoring empty pin current: Ix(m25:d)
Ignoring empty pin current: Ix(m25:g)
Ignoring empty pin current: Ix(m25:s)
Ignoring empty pin current: Ix(m25:vdd)
Ignoring empty pin current: Ix(m26:d)
Ignoring empty pin current: Ix(m26:g)
Ignoring empty pin current: Ix(m26:s)
Ignoring empty pin current: Ix(m26:gnd)
Ignoring empty pin current: Ix(m27:d)
Ignoring empty pin current: Ix(m27:g)
Ignoring empty pin current: Ix(m27:s)
Ignoring empty pin current: Ix(m27:vdd)
Ignoring empty pin current: Ix(m0:d)
Ignoring empty pin current: Ix(m0:g)
Ignoring empty pin current: Ix(m0:s)
Ignoring empty pin current: Ix(m0:gnd)
Ignoring empty pin current: Ix(x1:s0)
Ignoring empty pin current: Ix(x1:s1)
Ignoring empty pin current: Ix(x1:s2)
Ignoring empty pin current: Ix(x1:s3)
Ignoring empty pin current: Ix(x1:s4)
Ignoring empty pin current: Ix(x1:s5)
Ignoring empty pin current: Ix(x1:s6)
Ignoring empty pin current: Ix(x1:s7)
Ignoring empty pin current: Ix(x1:vout)
Ignoring empty pin current: Ix(x2:v_current)
Ignoring empty pin current: Ix(x2:vdd)
Ignoring empty pin current: Ix(x2:vin_1)
Ignoring empty pin current: Ix(x2:vout)
Ignoring empty pin current: Ix(x2:vout_1)
Ignoring empty pin current: Ix(x2:vout_2)
Ignoring empty pin current: Ix(x2:vout_3)
Ignoring empty pin current: Ix(m1:d)
Ignoring empty pin current: Ix(m1:g)
Ignoring empty pin current: Ix(m1:s)
Ignoring empty pin current: Ix(m1:vdd)
Ignoring empty pin current: Ix(m2:d)
Ignoring empty pin current: Ix(m2:g)
Ignoring empty pin current: Ix(m2:s)
Ignoring empty pin current: Ix(m2:gnd)
Ignoring empty pin current: Ix(m3:d)
Ignoring empty pin current: Ix(m3:g)
Ignoring empty pin current: Ix(m3:s)
Ignoring empty pin current: Ix(m3:vdd)
Ignoring empty pin current: Ix(m4:d)
Ignoring empty pin current: Ix(m4:g)
Ignoring empty pin current: Ix(m4:s)
Ignoring empty pin current: Ix(m4:vdd)
Ignoring empty pin current: Ix(m5:d)
Ignoring empty pin current: Ix(m5:g)
Ignoring empty pin current: Ix(m5:s)
Ignoring empty pin current: Ix(m5:gnd)
Ignoring empty pin current: Ix(m6:d)
Ignoring empty pin current: Ix(m6:g)
Ignoring empty pin current: Ix(m6:s)
Ignoring empty pin current: Ix(m6:vdd)
Ignoring empty pin current: Ix(m7:d)
Ignoring empty pin current: Ix(m7:g)
Ignoring empty pin current: Ix(m7:s)
Ignoring empty pin current: Ix(m7:vdd)
Ignoring empty pin current: Ix(m8:d)
Ignoring empty pin current: Ix(m8:g)
Ignoring empty pin current: Ix(m8:s)
Ignoring empty pin current: Ix(m8:gnd)
Ignoring empty pin current: Ix(m9:d)
Ignoring empty pin current: Ix(m9:g)
Ignoring empty pin current: Ix(m9:s)
Ignoring empty pin current: Ix(m9:vdd)
Ignoring empty pin current: Ix(m10:d)
Ignoring empty pin current: Ix(m10:g)
Ignoring empty pin current: Ix(m10:s)
Ignoring empty pin current: Ix(m10:vdd)
Ignoring empty pin current: Ix(m11:d)
Ignoring empty pin current: Ix(m11:g)
Ignoring empty pin current: Ix(m11:s)
Ignoring empty pin current: Ix(m11:gnd)
Ignoring empty pin current: Ix(m12:d)
Ignoring empty pin current: Ix(m12:g)
Ignoring empty pin current: Ix(m12:s)
Ignoring empty pin current: Ix(m12:vdd)
Ignoring empty pin current: Ix(m13:d)
Ignoring empty pin current: Ix(m13:g)
Ignoring empty pin current: Ix(m13:s)
Ignoring empty pin current: Ix(m13:vdd)
Ignoring empty pin current: Ix(m14:d)
Ignoring empty pin current: Ix(m14:g)
Ignoring empty pin current: Ix(m14:s)
Ignoring empty pin current: Ix(m14:gnd)
Ignoring empty pin current: Ix(m15:d)
Ignoring empty pin current: Ix(m15:g)
Ignoring empty pin current: Ix(m15:s)
Ignoring empty pin current: Ix(m15:vdd)
Ignoring empty pin current: Ix(m16:d)
Ignoring empty pin current: Ix(m16:g)
Ignoring empty pin current: Ix(m16:s)
Ignoring empty pin current: Ix(m16:vdd)
Ignoring empty pin current: Ix(m17:d)
Ignoring empty pin current: Ix(m17:g)
Ignoring empty pin current: Ix(m17:s)
Ignoring empty pin current: Ix(m17:gnd)
Ignoring empty pin current: Ix(m18:d)
Ignoring empty pin current: Ix(m18:g)
Ignoring empty pin current: Ix(m18:s)
Ignoring empty pin current: Ix(m18:vdd)
Ignoring empty pin current: Ix(m19:d)
Ignoring empty pin current: Ix(m19:g)
Ignoring empty pin current: Ix(m19:s)
Ignoring empty pin current: Ix(m19:vdd)
Ignoring empty pin current: Ix(m20:d)
Ignoring empty pin current: Ix(m20:g)
Ignoring empty pin current: Ix(m20:s)
Ignoring empty pin current: Ix(m20:gnd)
Ignoring empty pin current: Ix(m21:d)
Ignoring empty pin current: Ix(m21:g)
Ignoring empty pin current: Ix(m21:s)
Ignoring empty pin current: Ix(m21:vdd)
Ignoring empty pin current: Ix(m22:d)
Ignoring empty pin current: Ix(m22:g)
Ignoring empty pin current: Ix(m22:s)
Ignoring empty pin current: Ix(m22:vdd)
Ignoring empty pin current: Ix(m23:d)
Ignoring empty pin current: Ix(m23:g)
Ignoring empty pin current: Ix(m23:s)
Ignoring empty pin current: Ix(m23:gnd)
Ignoring empty pin current: Ix(m24:d)
Ignoring empty pin current: Ix(m24:g)
Ignoring empty pin current: Ix(m24:s)
Ignoring empty pin current: Ix(m24:vdd)
Ignoring empty pin current: Ix(m25:d)
Ignoring empty pin current: Ix(m25:g)
Ignoring empty pin current: Ix(m25:s)
Ignoring empty pin current: Ix(m25:vdd)
Ignoring empty pin current: Ix(m26:d)
Ignoring empty pin current: Ix(m26:g)
Ignoring empty pin current: Ix(m26:s)
Ignoring empty pin current: Ix(m26:gnd)
Ignoring empty pin current: Ix(m27:d)
Ignoring empty pin current: Ix(m27:g)
Ignoring empty pin current: Ix(m27:s)
Ignoring empty pin current: Ix(m27:vdd)
Ignoring empty pin current: Ix(m0:d)
Ignoring empty pin current: Ix(m0:g)
Ignoring empty pin current: Ix(m0:s)
Ignoring empty pin current: Ix(m0:gnd)
Ignoring empty pin current: Ix(x1:s0)
Ignoring empty pin current: Ix(x1:s1)
Ignoring empty pin current: Ix(x1:s2)
Ignoring empty pin current: Ix(x1:s3)
Ignoring empty pin current: Ix(x1:s4)
Ignoring empty pin current: Ix(x1:s5)
Ignoring empty pin current: Ix(x1:s6)
Ignoring empty pin current: Ix(x1:s7)
Ignoring empty pin current: Ix(x1:vout)
Ignoring empty pin current: Ix(x2:v_current)
Ignoring empty pin current: Ix(x2:vdd)
Ignoring empty pin current: Ix(x2:vin_1)
Ignoring empty pin current: Ix(x2:vout)
Ignoring empty pin current: Ix(x2:vout_1)
Ignoring empty pin current: Ix(x2:vout_2)
Ignoring empty pin current: Ix(x2:vout_3)

Date: Fri Nov 11 10:46:59 2016
Total elapsed time: 12.683 seconds.

tnom = 27
temp = 27
method = modified trap
totiter = 94628
traniter = 94586
tranpoints = 24452
accept = 17164
rejected = 7288
matrix size = 49
fillins = 17
solver = Alternate
Thread vector: 83.6/69.9[3] 26.0/320.2[1] 8.1/15.1[1] 1.3/4.1[1]  2592/500
Matrix Compiler1: 8134 object code size  3.5/2.8/[1.5]
Matrix Compiler2: off

