Circuit: * /Users/tatyanagubin/winterg/2016-design-project/subcircuits/3_DAC_winterg.asc

WARNING: Node N011 is floating.
WARNING: Node S0 is floating.
WARNING: Node S1 is floating.
WARNING: Node S2 is floating.
WARNING: Node S3 is floating.
WARNING: Node S4 is floating.
WARNING: Node S5 is floating.
WARNING: Node S6 is floating.
WARNING: Node S7 is floating.

Model "m18:pch": Oxide thickness thinner than recommended for a level 1 MOSFET.
Instance "m:m18:1": Length shorter than recommended for a level 1 MOSFET.
Model "m17:pch": Oxide thickness thinner than recommended for a level 1 MOSFET.
Instance "m:m17:1": Length shorter than recommended for a level 1 MOSFET.
Model "m16:nch": Oxide thickness thinner than recommended for a level 1 MOSFET.
Instance "m:m16:1": Length shorter than recommended for a level 1 MOSFET.
Model "m15:nch": Oxide thickness thinner than recommended for a level 1 MOSFET.
Instance "m:m15:1": Length shorter than recommended for a level 1 MOSFET.
Model "m14:nch": Oxide thickness thinner than recommended for a level 1 MOSFET.
Instance "m:m14:1": Length shorter than recommended for a level 1 MOSFET.
Model "m13:nch": Oxide thickness thinner than recommended for a level 1 MOSFET.
Instance "m:m13:1": Length shorter than recommended for a level 1 MOSFET.
Model "m12:nch": Oxide thickness thinner than recommended for a level 1 MOSFET.
Instance "m:m12:1": Length shorter than recommended for a level 1 MOSFET.
Model "m11:nch": Oxide thickness thinner than recommended for a level 1 MOSFET.
Instance "m:m11:1": Length shorter than recommended for a level 1 MOSFET.
Model "m10:nch": Oxide thickness thinner than recommended for a level 1 MOSFET.
Instance "m:m10:1": Length shorter than recommended for a level 1 MOSFET.
Model "m9:nch": Oxide thickness thinner than recommended for a level 1 MOSFET.
Instance "m:m9:1": Length shorter than recommended for a level 1 MOSFET.
Model "m7:nch": Oxide thickness thinner than recommended for a level 1 MOSFET.
Instance "m:m7:1": Length shorter than recommended for a level 1 MOSFET.
Model "m6:nch": Oxide thickness thinner than recommended for a level 1 MOSFET.
Instance "m:m6:1": Length shorter than recommended for a level 1 MOSFET.
Model "m5:nch": Oxide thickness thinner than recommended for a level 1 MOSFET.
Instance "m:m5:1": Length shorter than recommended for a level 1 MOSFET.
Model "m4:nch": Oxide thickness thinner than recommended for a level 1 MOSFET.
Instance "m:m4:1": Length shorter than recommended for a level 1 MOSFET.
Model "m3:nch": Oxide thickness thinner than recommended for a level 1 MOSFET.
Instance "m:m3:1": Length shorter than recommended for a level 1 MOSFET.
Model "m2:nch": Oxide thickness thinner than recommended for a level 1 MOSFET.
Instance "m:m2:1": Length shorter than recommended for a level 1 MOSFET.
Model "m1:nch": Oxide thickness thinner than recommended for a level 1 MOSFET.
Instance "m:m1:1": Length shorter than recommended for a level 1 MOSFET.
Model "m0:nch": Oxide thickness thinner than recommended for a level 1 MOSFET.
Instance "m:m0:1": Length shorter than recommended for a level 1 MOSFET.
Model "m8:nch": Oxide thickness thinner than recommended for a level 1 MOSFET.
Instance "m:m8:1": Length shorter than recommended for a level 1 MOSFET.
Early termination of direct N-R iteration.
Direct Newton iteration failed to find .op point.  (Use ".option noopiter" to skip.)
Starting Gmin stepping
Gmin = 10
Gmin = 1.07374
Gmin = 0.115292
Gmin = 0.0123794
Gmin = 0.00132923
Gmin = 0.000142725
Gmin = 1.5325e-05
Gmin = 1.6455e-06
Gmin = 1.76685e-07
Gmin = 1.89714e-08
Gmin = 2.03704e-09
Gmin = 2.18725e-10
Gmin = 2.34854e-11
Gmin = 2.52173e-12
Gmin = 2.70769e-13
Gmin = 0
Gmin stepping succeeded in finding the operating point.

Singular matrix:  Check node s0
   Iteration No. 1
Fatal Error: Singular matrix:  check node s0
   Iteration No. 1

This circuit has floating nodes.
